<routes>
	 <vehicles>
		<flow id="f01" begin="0" end="10000" from="gneE2" to="gneE3" probability="0.05" departSpeed="13.89"/>
		<flow id="f02" begin="0" end="10000" from="gneE2" to="gneE5" probability="0.05" departSpeed="13.89"/>
		<flow id="f03" begin="0" end="10000" from="gneE2" to="-gneE4" probability="0.05" departSpeed="13.89"/>
		<flow id="f04" begin="0" end="10000" from="-gneE5" to="-gneE2" probability="0.05" departSpeed="13.89"/>
		<flow id="f05" begin="0" end="10000" from="-gneE3" to="-gneE2" probability="0.05" departSpeed="13.89"/>
		<flow id="f06" begin="0" end="10000" from="gneE4" to="-gneE2" probability="0.05" departSpeed="13.89"/>
	 </vehicles>
</routes>