<?xml version="1.0" encoding="UTF-8"?>

<!-- generated on 10/25/19 10:36:12 by Eclipse SUMO netedit Version 1.3.1
<configuration xmlns:xsi="http://www.w3.org/2001/XMLSchema-instance" xsi:noNamespaceSchemaLocation="http://sumo.dlr.de/xsd/netconvertConfiguration.xsd">

    <input>
        <sumo-net-file value="C:\Users\Bosse\Documents\00_DTU\01_Master\01_First_Semester\02223_Model-Based_Systems_Engineering\networks\test01.net.xml"/>
    </input>

    <output>
        <output-file value="C:\Users\Bosse\Documents\00_DTU\01_Master\01_First_Semester\02223_Model-Based_Systems_Engineering\networks\test01.net.xml"/>
    </output>

    <processing>
        <geometry.max-grade.fix value="false"/>
        <offset.disable-normalization value="true"/>
        <opposites.guess.fix-lengths value="true"/>
        <lefthand value="false"/>
    </processing>

    <junctions>
        <no-turnarounds value="true"/>
        <junctions.corner-detail value="5"/>
        <junctions.limit-turn-speed value="5.5"/>
        <rectangular-lane-cut value="false"/>
    </junctions>

    <pedestrian>
        <walkingareas value="false"/>
    </pedestrian>

</configuration>
-->

<net version="1.3" junctionCornerDetail="5" limitTurnSpeed="5.50" xmlns:xsi="http://www.w3.org/2001/XMLSchema-instance" xsi:noNamespaceSchemaLocation="http://sumo.dlr.de/xsd/net_file.xsd">

    <location netOffset="0.00,0.00" convBoundary="-50.00,-50.00,50.00,50.00" origBoundary="-10000000000.00,-10000000000.00,10000000000.00,10000000000.00" projParameter="!"/>

    <edge id=":0_0" function="internal">
        <lane id=":0_0_0" index="0" speed="6.43" length="8.87" width="3.00" shape="-1.50,7.00 -1.84,4.59 -2.88,2.88 -4.59,1.84 -7.00,1.50"/>
    </edge>
    <edge id=":0_1" function="internal">
        <lane id=":0_1_0" index="0" speed="13.89" length="14.00" width="3.00" shape="-1.50,7.00 -1.50,-7.00"/>
    </edge>
    <edge id=":0_2" function="internal">
        <lane id=":0_2_0" index="0" speed="7.86" length="5.64" width="3.00" shape="-1.50,7.00 -0.97,3.28 0.00,1.67"/>
    </edge>
    <edge id=":0_12" function="internal">
        <lane id=":0_12_0" index="0" speed="7.86" length="8.07" width="3.00" shape="0.00,1.67 0.63,0.63 3.28,-0.97 7.00,-1.50"/>
    </edge>
    <edge id=":0_3" function="internal">
        <lane id=":0_3_0" index="0" speed="6.43" length="8.87" width="3.00" shape="7.00,1.50 4.59,1.84 2.88,2.88 1.84,4.59 1.50,7.00"/>
    </edge>
    <edge id=":0_4" function="internal">
        <lane id=":0_4_0" index="0" speed="13.89" length="14.00" width="3.00" shape="7.00,1.50 -7.00,1.50"/>
    </edge>
    <edge id=":0_5" function="internal">
        <lane id=":0_5_0" index="0" speed="7.86" length="13.71" width="3.00" shape="7.00,1.50 3.28,0.97 0.63,-0.63 -0.97,-3.28 -1.50,-7.00"/>
    </edge>
    <edge id=":0_6" function="internal">
        <lane id=":0_6_0" index="0" speed="6.43" length="8.87" width="3.00" shape="1.50,-7.00 1.84,-4.59 2.88,-2.88 4.59,-1.84 7.00,-1.50"/>
    </edge>
    <edge id=":0_7" function="internal">
        <lane id=":0_7_0" index="0" speed="13.89" length="14.00" width="3.00" shape="1.50,-7.00 1.50,7.00"/>
    </edge>
    <edge id=":0_8" function="internal">
        <lane id=":0_8_0" index="0" speed="7.86" length="5.64" width="3.00" shape="1.50,-7.00 0.97,-3.28 0.00,-1.67"/>
    </edge>
    <edge id=":0_13" function="internal">
        <lane id=":0_13_0" index="0" speed="7.86" length="8.07" width="3.00" shape="0.00,-1.67 -0.63,-0.63 -3.28,0.97 -7.00,1.50"/>
    </edge>
    <edge id=":0_9" function="internal">
        <lane id=":0_9_0" index="0" speed="6.43" length="8.87" width="3.00" shape="-7.00,-1.50 -4.59,-1.84 -2.88,-2.88 -1.84,-4.59 -1.50,-7.00"/>
    </edge>
    <edge id=":0_10" function="internal">
        <lane id=":0_10_0" index="0" speed="13.89" length="14.00" width="3.00" shape="-7.00,-1.50 7.00,-1.50"/>
    </edge>
    <edge id=":0_11" function="internal">
        <lane id=":0_11_0" index="0" speed="7.86" length="13.71" width="3.00" shape="-7.00,-1.50 -3.28,-0.97 -0.63,0.63 0.97,3.28 1.50,7.00"/>
    </edge>

    <edge id="-gneE2" from="0" to="1" priority="-1">
        <lane id="-gneE2_0" index="0" speed="13.89" length="43.00" width="3.00" shape="-1.50,-7.00 -1.50,-50.00"/>
    </edge>
    <edge id="-gneE3" from="3" to="0" priority="-1">
        <lane id="-gneE3_0" index="0" speed="13.89" length="43.00" width="3.00" shape="-1.50,50.00 -1.50,7.00"/>
    </edge>
    <edge id="-gneE4" from="0" to="2" priority="-1">
        <lane id="-gneE4_0" index="0" speed="13.89" length="43.00" width="3.00" shape="7.00,-1.50 50.00,-1.50"/>
    </edge>
    <edge id="-gneE5" from="4" to="0" priority="-1">
        <lane id="-gneE5_0" index="0" speed="13.89" length="43.00" width="3.00" shape="-50.00,-1.50 -7.00,-1.50"/>
    </edge>
    <edge id="gneE2" from="1" to="0" priority="-1">
        <lane id="gneE2_0" index="0" speed="13.89" length="43.00" width="3.00" shape="1.50,-50.00 1.50,-7.00"/>
    </edge>
    <edge id="gneE3" from="0" to="3" priority="-1">
        <lane id="gneE3_0" index="0" speed="13.89" length="43.00" width="3.00" shape="1.50,7.00 1.50,50.00"/>
    </edge>
    <edge id="gneE4" from="2" to="0" priority="-1">
        <lane id="gneE4_0" index="0" speed="13.89" length="43.00" width="3.00" shape="50.00,1.50 7.00,1.50"/>
    </edge>
    <edge id="gneE5" from="0" to="4" priority="-1">
        <lane id="gneE5_0" index="0" speed="13.89" length="43.00" width="3.00" shape="-7.00,1.50 -50.00,1.50"/>
    </edge>

    <junction id="0" type="priority" x="0.00" y="0.00" incLanes="-gneE3_0 gneE4_0 gneE2_0 -gneE5_0" intLanes=":0_0_0 :0_1_0 :0_12_0 :0_3_0 :0_4_0 :0_5_0 :0_6_0 :0_7_0 :0_13_0 :0_9_0 :0_10_0 :0_11_0" shape="-3.00,7.00 3.00,7.00 3.44,4.78 4.00,4.00 4.78,3.44 5.78,3.11 7.00,3.00 7.00,-3.00 4.78,-3.44 4.00,-4.00 3.44,-4.78 3.11,-5.78 3.00,-7.00 -3.00,-7.00 -3.44,-4.78 -4.00,-4.00 -4.78,-3.44 -5.78,-3.11 -7.00,-3.00 -7.00,3.00 -4.78,3.44 -4.00,4.00 -3.44,4.78 -3.11,5.78">
        <request index="0"  response="000000000000" foes="000100010000" cont="0"/>
        <request index="1"  response="000000000000" foes="111100110000" cont="0"/>
        <request index="2"  response="000011000000" foes="110011110000" cont="1"/>
        <request index="3"  response="000010000000" foes="100010000000" cont="0"/>
        <request index="4"  response="000110000111" foes="100110000111" cont="0"/>
        <request index="5"  response="011110000110" foes="011110000110" cont="0"/>
        <request index="6"  response="000000000000" foes="010000000100" cont="0"/>
        <request index="7"  response="000000000000" foes="110000111100" cont="0"/>
        <request index="8"  response="000000000011" foes="110000110011" cont="1"/>
        <request index="9"  response="000000000010" foes="000000100010" cont="0"/>
        <request index="10" response="000111000110" foes="000111100110" cont="0"/>
        <request index="11" response="000110011110" foes="000110011110" cont="0"/>
    </junction>
    <junction id="1" type="dead_end" x="0.00" y="-50.00" incLanes="-gneE2_0" intLanes="" shape="0.00,-50.00 -3.00,-50.00 0.00,-50.00"/>
    <junction id="2" type="dead_end" x="50.00" y="0.00" incLanes="-gneE4_0" intLanes="" shape="50.00,0.00 50.00,-3.00 50.00,0.00"/>
    <junction id="3" type="dead_end" x="0.00" y="50.00" incLanes="gneE3_0" intLanes="" shape="0.00,50.00 3.00,50.00 0.00,50.00"/>
    <junction id="4" type="dead_end" x="-50.00" y="0.00" incLanes="gneE5_0" intLanes="" shape="-50.00,0.00 -50.00,3.00 -50.00,0.00"/>

    <junction id=":0_12_0" type="internal" x="0.00" y="1.67" incLanes=":0_2_0 gneE2_0" intLanes=":0_4_0 :0_5_0 :0_6_0 :0_7_0 :0_10_0 :0_11_0"/>
    <junction id=":0_13_0" type="internal" x="0.00" y="-1.67" incLanes=":0_8_0 -gneE3_0" intLanes=":0_0_0 :0_1_0 :0_4_0 :0_5_0 :0_10_0 :0_11_0"/>

    <connection from="-gneE3" to="gneE5" fromLane="0" toLane="0" via=":0_0_0" dir="r" state="M"/>
    <connection from="-gneE3" to="-gneE2" fromLane="0" toLane="0" via=":0_1_0" dir="s" state="M"/>
    <connection from="-gneE3" to="-gneE4" fromLane="0" toLane="0" via=":0_2_0" dir="l" state="m"/>
    <connection from="-gneE5" to="-gneE2" fromLane="0" toLane="0" via=":0_9_0" dir="r" state="m"/>
    <connection from="-gneE5" to="-gneE4" fromLane="0" toLane="0" via=":0_10_0" dir="s" state="m"/>
    <connection from="-gneE5" to="gneE3" fromLane="0" toLane="0" via=":0_11_0" dir="l" state="m"/>
    <connection from="gneE2" to="-gneE4" fromLane="0" toLane="0" via=":0_6_0" dir="r" state="M"/>
    <connection from="gneE2" to="gneE3" fromLane="0" toLane="0" via=":0_7_0" dir="s" state="M"/>
    <connection from="gneE2" to="gneE5" fromLane="0" toLane="0" via=":0_8_0" dir="l" state="m"/>
    <connection from="gneE4" to="gneE3" fromLane="0" toLane="0" via=":0_3_0" dir="r" state="m"/>
    <connection from="gneE4" to="gneE5" fromLane="0" toLane="0" via=":0_4_0" dir="s" state="m"/>
    <connection from="gneE4" to="-gneE2" fromLane="0" toLane="0" via=":0_5_0" dir="l" state="m"/>

    <connection from=":0_0" to="gneE5" fromLane="0" toLane="0" dir="r" state="M"/>
    <connection from=":0_1" to="-gneE2" fromLane="0" toLane="0" dir="s" state="M"/>
    <connection from=":0_2" to="-gneE4" fromLane="0" toLane="0" via=":0_12_0" dir="l" state="m"/>
    <connection from=":0_12" to="-gneE4" fromLane="0" toLane="0" dir="l" state="M"/>
    <connection from=":0_3" to="gneE3" fromLane="0" toLane="0" dir="r" state="M"/>
    <connection from=":0_4" to="gneE5" fromLane="0" toLane="0" dir="s" state="M"/>
    <connection from=":0_5" to="-gneE2" fromLane="0" toLane="0" dir="l" state="M"/>
    <connection from=":0_6" to="-gneE4" fromLane="0" toLane="0" dir="r" state="M"/>
    <connection from=":0_7" to="gneE3" fromLane="0" toLane="0" dir="s" state="M"/>
    <connection from=":0_8" to="gneE5" fromLane="0" toLane="0" via=":0_13_0" dir="l" state="m"/>
    <connection from=":0_13" to="gneE5" fromLane="0" toLane="0" dir="l" state="M"/>
    <connection from=":0_9" to="-gneE2" fromLane="0" toLane="0" dir="r" state="M"/>
    <connection from=":0_10" to="-gneE4" fromLane="0" toLane="0" dir="s" state="M"/>
    <connection from=":0_11" to="gneE3" fromLane="0" toLane="0" dir="l" state="M"/>

</net>
